C5H10O
NCtclcactv09232613143D 0   0.00000     0.00000
 
 16 15  0  0  0  0  0  0  0  0999 V2000
    2.7638    0.2772    0.0000 C   0  0  0  0  0  0  0  0  0  0  0  0
    1.3986   -0.4135   -0.0000 C   0  0  0  0  0  0  0  0  0  0  0  0
    0.2923    0.6434    0.0000 C   0  0  0  0  0  0  0  0  0  0  0  0
   -1.0524   -0.0369    0.0000 C   0  0  0  0  0  0  0  0  0  0  0  0
   -2.3139    0.7874   -0.0000 C   0  0  0  0  0  0  0  0  0  0  0  0
   -1.1190   -1.2427    0.0000 O   0  0  0  0  0  0  0  0  0  0  0  0
    2.8561    0.8997    0.8900 H   0  0  0  0  0  0  0  0  0  0  0  0
    3.5520   -0.4758    0.0000 H   0  0  0  0  0  0  0  0  0  0  0  0
    2.8561    0.8997   -0.8900 H   0  0  0  0  0  0  0  0  0  0  0  0
    1.3064   -1.0360   -0.8900 H   0  0  0  0  0  0  0  0  0  0  0  0
    1.3064   -1.0360    0.8900 H   0  0  0  0  0  0  0  0  0  0  0  0
    0.3846    1.2659    0.8900 H   0  0  0  0  0  0  0  0  0  0  0  0
    0.3846    1.2659   -0.8900 H   0  0  0  0  0  0  0  0  0  0  0  0
   -2.0559    1.8465    0.0000 H   0  0  0  0  0  0  0  0  0  0  0  0
   -2.8991    0.5561   -0.8900 H   0  0  0  0  0  0  0  0  0  0  0  0
   -2.8991    0.5561    0.8900 H   0  0  0  0  0  0  0  0  0  0  0  0
  1  2  1  0  0  0  0
  2  3  1  0  0  0  0
  3  4  1  0  0  0  0
  4  5  1  0  0  0  0
  4  6  2  0  0  0  0
  1  7  1  0  0  0  0
  1  8  1  0  0  0  0
  1  9  1  0  0  0  0
  2 10  1  0  0  0  0
  2 11  1  0  0  0  0
  3 12  1  0  0  0  0
  3 13  1  0  0  0  0
  5 14  1  0  0  0  0
  5 15  1  0  0  0  0
  5 16  1  0  0  0  0
M  END
$$$$
