CH2O
NCtclcactv09232613123D 0   0.00000     0.00000
 
  4  3  0  0  0  0  0  0  0  0999 V2000
    0.6072    0.0000   -0.0004 C   0  0  0  0  0  0  0  0  0  0  0  0
   -0.6004    0.0000    0.0001 O   0  0  0  0  0  0  0  0  0  0  0  0
    1.1472    0.9353    0.0016 H   0  0  0  0  0  0  0  0  0  0  0  0
    1.1472   -0.9353    0.0016 H   0  0  0  0  0  0  0  0  0  0  0  0
  1  2  2  0  0  0  0
  1  3  1  0  0  0  0
  1  4  1  0  0  0  0
M  END
$$$$
