C6H7NO
NCtclcactv09232613133D 0   0.00000     0.00000
 
 15 15  0  0  0  0  0  0  0  0999 V2000
    2.4209   -0.9945   -0.0041 N   0  0  0  0  0  0  0  0  0  0  0  0
    1.2120   -0.2951    0.0004 C   0  0  0  0  0  0  0  0  0  0  0  0
    1.2120    1.0945   -0.0113 C   0  0  0  0  0  0  0  0  0  0  0  0
    0.0164    1.7859   -0.0063 C   0  0  0  0  0  0  0  0  0  0  0  0
   -1.1825    1.0984    0.0103 C   0  0  0  0  0  0  0  0  0  0  0  0
   -1.1888   -0.2892    0.0216 C   0  0  0  0  0  0  0  0  0  0  0  0
   -2.3685   -0.9637    0.0380 O   0  0  0  0  0  0  0  0  0  0  0  0
    0.0089   -0.9871    0.0109 C   0  0  0  0  0  0  0  0  0  0  0  0
    3.2613   -0.5103   -0.0154 H   0  0  0  0  0  0  0  0  0  0  0  0
    2.4201   -1.9645    0.0082 H   0  0  0  0  0  0  0  0  0  0  0  0
    2.1475    1.6341   -0.0239 H   0  0  0  0  0  0  0  0  0  0  0  0
    0.0183    2.8659   -0.0150 H   0  0  0  0  0  0  0  0  0  0  0  0
   -2.1158    1.6419    0.0149 H   0  0  0  0  0  0  0  0  0  0  0  0
   -2.7181   -1.1660   -0.8406 H   0  0  0  0  0  0  0  0  0  0  0  0
    0.0059   -2.0670    0.0193 H   0  0  0  0  0  0  0  0  0  0  0  0
  1  2  1  0  0  0  0
  2  3  1  0  0  0  0
  3  4  2  0  0  0  0
  4  5  1  0  0  0  0
  5  6  2  0  0  0  0
  6  7  1  0  0  0  0
  6  8  1  0  0  0  0
  2  8  2  0  0  0  0
  1  9  1  0  0  0  0
  1 10  1  0  0  0  0
  3 11  1  0  0  0  0
  4 12  1  0  0  0  0
  5 13  1  0  0  0  0
  7 14  1  0  0  0  0
  8 15  1  0  0  0  0
M  END
$$$$
