C4H4N2
NCtclcactv09232613133D 0   0.00000     0.00000
 
 10 10  0  0  0  0  0  0  0  0999 V2000
   -0.0002   -1.3633   -0.0002 C   0  0  0  0  0  0  0  0  0  0  0  0
   -1.1906   -0.6534   -0.0001 C   0  0  0  0  0  0  0  0  0  0  0  0
   -1.1512    0.6694    0.0001 N   0  0  0  0  0  0  0  0  0  0  0  0
    0.0002    1.3106    0.0001 C   0  0  0  0  0  0  0  0  0  0  0  0
    1.1514    0.6690    0.0000 N   0  0  0  0  0  0  0  0  0  0  0  0
    1.1904   -0.6538   -0.0002 C   0  0  0  0  0  0  0  0  0  0  0  0
   -0.0004   -2.4433    0.0040 H   0  0  0  0  0  0  0  0  0  0  0  0
   -2.1375   -1.1727   -0.0005 H   0  0  0  0  0  0  0  0  0  0  0  0
    0.0004    2.3906   -0.0001 H   0  0  0  0  0  0  0  0  0  0  0  0
    2.1372   -1.1734   -0.0002 H   0  0  0  0  0  0  0  0  0  0  0  0
  1  2  1  0  0  0  0
  2  3  2  0  0  0  0
  3  4  1  0  0  0  0
  4  5  2  0  0  0  0
  5  6  1  0  0  0  0
  1  6  2  0  0  0  0
  1  7  1  0  0  0  0
  2  8  1  0  0  0  0
  4  9  1  0  0  0  0
  6 10  1  0  0  0  0
M  END
$$$$
