C5H5N5
NCtclcactv09232613143D 0   0.00000     0.00000
 
 15 16  0  0  0  0  0  0  0  0999 V2000
    1.7802    1.9193   -0.0008 N   0  0  0  0  0  0  0  0  0  0  0  0
    1.2059    0.6601   -0.0005 C   0  0  0  0  0  0  0  0  0  0  0  0
    1.9628   -0.4324   -0.0004 N   0  0  0  0  0  0  0  0  0  0  0  0
    1.4237   -1.6378   -0.0001 C   0  0  0  0  0  0  0  0  0  0  0  0
    0.1213   -1.8294   -0.0003 N   0  0  0  0  0  0  0  0  0  0  0  0
   -0.7152   -0.7968   -0.0004 C   0  0  0  0  0  0  0  0  0  0  0  0
   -2.0799   -0.6554   -0.0007 N   0  0  0  0  0  0  0  0  0  0  0  0
   -2.7313   -1.3741   -0.0009 H   0  0  0  0  0  0  0  0  0  0  0  0
   -2.3524    0.6803   -0.0007 C   0  0  0  0  0  0  0  0  0  0  0  0
   -1.2428    1.3604   -0.0005 N   0  0  0  0  0  0  0  0  0  0  0  0
   -0.1908    0.5070    0.0056 C   0  0  0  0  0  0  0  0  0  0  0  0
    2.7457    2.0120   -0.0010 H   0  0  0  0  0  0  0  0  0  0  0  0
    1.2171    2.7091   -0.0049 H   0  0  0  0  0  0  0  0  0  0  0  0
    2.0757   -2.4988    0.0000 H   0  0  0  0  0  0  0  0  0  0  0  0
   -3.3429    1.1106   -0.0015 H   0  0  0  0  0  0  0  0  0  0  0  0
  1  2  1  0  0  0  0
  2  3  1  0  0  0  0
  3  4  2  0  0  0  0
  4  5  1  0  0  0  0
  5  6  2  0  0  0  0
  6  7  1  0  0  0  0
  7  8  1  0  0  0  0
  7  9  1  0  0  0  0
  9 10  2  0  0  0  0
 10 11  1  0  0  0  0
  2 11  2  0  0  0  0
  6 11  1  0  0  0  0
  1 12  1  0  0  0  0
  1 13  1  0  0  0  0
  4 14  1  0  0  0  0
  9 15  1  0  0  0  0
M  END
$$$$
