C6H7NO
NCtclcactv09232613133D 0   0.00000     0.00000
 
 15 15  0  0  0  0  0  0  0  0999 V2000
    2.7978   -0.0000   -0.0140 N   0  0  0  0  0  0  0  0  0  0  0  0
    1.3985   -0.0000   -0.0027 C   0  0  0  0  0  0  0  0  0  0  0  0
    0.7038    1.2023    0.0018 C   0  0  0  0  0  0  0  0  0  0  0  0
   -0.6773    1.2014    0.0129 C   0  0  0  0  0  0  0  0  0  0  0  0
   -1.3703    0.0000    0.0202 C   0  0  0  0  0  0  0  0  0  0  0  0
   -2.7303    0.0001    0.0312 O   0  0  0  0  0  0  0  0  0  0  0  0
   -0.6773   -1.2014    0.0157 C   0  0  0  0  0  0  0  0  0  0  0  0
    0.7037   -1.2023   -0.0017 C   0  0  0  0  0  0  0  0  0  0  0  0
    3.2828    0.8400   -0.0187 H   0  0  0  0  0  0  0  0  0  0  0  0
    3.2828   -0.8401   -0.0130 H   0  0  0  0  0  0  0  0  0  0  0  0
    1.2433    2.1379   -0.0031 H   0  0  0  0  0  0  0  0  0  0  0  0
   -1.2177    2.1365    0.0164 H   0  0  0  0  0  0  0  0  0  0  0  0
   -3.1308   -0.0011   -0.8490 H   0  0  0  0  0  0  0  0  0  0  0  0
   -1.2177   -2.1364    0.0214 H   0  0  0  0  0  0  0  0  0  0  0  0
    1.2432   -2.1379   -0.0055 H   0  0  0  0  0  0  0  0  0  0  0  0
  1  2  1  0  0  0  0
  2  3  1  0  0  0  0
  3  4  2  0  0  0  0
  4  5  1  0  0  0  0
  5  6  1  0  0  0  0
  5  7  2  0  0  0  0
  7  8  1  0  0  0  0
  2  8  2  0  0  0  0
  1  9  1  0  0  0  0
  1 10  1  0  0  0  0
  3 11  1  0  0  0  0
  4 12  1  0  0  0  0
  6 13  1  0  0  0  0
  7 14  1  0  0  0  0
  8 15  1  0  0  0  0
M  END
$$$$
