O2S
NCtclcactv09232613133D 0   0.00000     0.00000
 
  3  2  0  0  0  0  0  0  0  0999 V2000
   -1.1567    0.4858    0.0000 O   0  0  0  0  0  0  0  0  0  0  0  0
    0.0000   -0.4848   -0.0000 S   0  0  0  0  0  0  0  0  0  0  0  0
    1.1567    0.4858    0.0000 O   0  0  0  0  0  0  0  0  0  0  0  0
  1  2  2  0  0  0  0
  2  3  2  0  0  0  0
M  END
$$$$
