H3N
NCtclcactv09232613123D 0   0.00000     0.00000
 
  4  3  0  0  0  0  0  0  0  0999 V2000
   -0.0000   -0.0000    0.0550 N   0  0  0  0  0  0  0  0  0  0  0  0
   -0.0128   -0.9601   -0.2550 H   0  0  0  0  0  0  0  0  0  0  0  0
    0.8379    0.4690   -0.2550 H   0  0  0  0  0  0  0  0  0  0  0  0
   -0.8251    0.4911   -0.2550 H   0  0  0  0  0  0  0  0  0  0  0  0
  1  2  1  0  0  0  0
  1  3  1  0  0  0  0
  1  4  1  0  0  0  0
M  END
$$$$
