C5H6N2O2
NCtclcactv09232613143D 0   0.00000     0.00000
 
 15 15  0  0  0  0  0  0  0  0999 V2000
    2.6166    0.8167    0.0010 C   0  0  0  0  0  0  0  0  0  0  0  0
    1.1389    0.5212    0.0013 C   0  0  0  0  0  0  0  0  0  0  0  0
    0.2398    1.5286   -0.0006 C   0  0  0  0  0  0  0  0  0  0  0  0
   -1.0983    1.2426   -0.0008 N   0  0  0  0  0  0  0  0  0  0  0  0
   -1.7443    1.9662   -0.0022 H   0  0  0  0  0  0  0  0  0  0  0  0
   -1.5265   -0.0329    0.0005 C   0  0  0  0  0  0  0  0  0  0  0  0
   -2.7201   -0.2645   -0.0000 O   0  0  0  0  0  0  0  0  0  0  0  0
   -0.6521   -1.0562    0.0020 N   0  0  0  0  0  0  0  0  0  0  0  0
   -0.9778   -1.9699    0.0023 H   0  0  0  0  0  0  0  0  0  0  0  0
    0.6748   -0.8163   -0.0023 C   0  0  0  0  0  0  0  0  0  0  0  0
    1.4666   -1.7415   -0.0009 O   0  0  0  0  0  0  0  0  0  0  0  0
    2.9727    0.8898    1.0285 H   0  0  0  0  0  0  0  0  0  0  0  0
    3.1475    0.0143   -0.5114 H   0  0  0  0  0  0  0  0  0  0  0  0
    2.7985    1.7597   -0.5145 H   0  0  0  0  0  0  0  0  0  0  0  0
    0.5752    2.5552   -0.0017 H   0  0  0  0  0  0  0  0  0  0  0  0
  1  2  1  0  0  0  0
  2  3  2  0  0  0  0
  3  4  1  0  0  0  0
  4  5  1  0  0  0  0
  4  6  1  0  0  0  0
  6  7  2  0  0  0  0
  6  8  1  0  0  0  0
  8  9  1  0  0  0  0
  8 10  1  0  0  0  0
  2 10  1  0  0  0  0
 10 11  2  0  0  0  0
  1 12  1  0  0  0  0
  1 13  1  0  0  0  0
  1 14  1  0  0  0  0
  3 15  1  0  0  0  0
M  END
$$$$
