CH3NO
NCtclcactv09232613143D 0   0.00000     0.00000
 
  6  5  0  0  0  0  0  0  0  0999 V2000
    1.1174    0.1702   -0.0003 N   0  0  0  0  0  0  0  0  0  0  0  0
   -0.0854   -0.4378   -0.0002 C   0  0  0  0  0  0  0  0  0  0  0  0
   -1.1005    0.2260    0.0002 O   0  0  0  0  0  0  0  0  0  0  0  0
    1.1713    1.1388   -0.0001 H   0  0  0  0  0  0  0  0  0  0  0  0
    1.9292   -0.3606    0.0035 H   0  0  0  0  0  0  0  0  0  0  0  0
   -0.1454   -1.5161   -0.0004 H   0  0  0  0  0  0  0  0  0  0  0  0
  1  2  1  0  0  0  0
  2  3  2  0  0  0  0
  1  4  1  0  0  0  0
  1  5  1  0  0  0  0
  2  6  1  0  0  0  0
M  END
$$$$
