C4H5N3O
NCtclcactv09232613143D 0   0.00000     0.00000
 
 13 13  0  0  0  0  0  0  0  0999 V2000
    2.4128   -0.8486    0.0007 N   0  0  0  0  0  0  0  0  0  0  0  0
    1.1760   -0.2464    0.0009 C   0  0  0  0  0  0  0  0  0  0  0  0
    1.0719    1.1598   -0.0001 C   0  0  0  0  0  0  0  0  0  0  0  0
   -0.1578    1.7265   -0.0004 C   0  0  0  0  0  0  0  0  0  0  0  0
   -1.2605    0.9260    0.0004 N   0  0  0  0  0  0  0  0  0  0  0  0
   -2.1453    1.3235    0.0002 H   0  0  0  0  0  0  0  0  0  0  0  0
   -1.1284   -0.4131    0.0009 C   0  0  0  0  0  0  0  0  0  0  0  0
   -2.1265   -1.1145    0.0008 O   0  0  0  0  0  0  0  0  0  0  0  0
    0.0743   -0.9854   -0.0035 N   0  0  0  0  0  0  0  0  0  0  0  0
    3.2166   -0.3056   -0.0001 H   0  0  0  0  0  0  0  0  0  0  0  0
    2.4812   -1.8161    0.0055 H   0  0  0  0  0  0  0  0  0  0  0  0
    1.9594    1.7753   -0.0004 H   0  0  0  0  0  0  0  0  0  0  0  0
   -0.2635    2.8014   -0.0008 H   0  0  0  0  0  0  0  0  0  0  0  0
  1  2  1  0  0  0  0
  2  3  1  0  0  0  0
  3  4  2  0  0  0  0
  4  5  1  0  0  0  0
  5  6  1  0  0  0  0
  5  7  1  0  0  0  0
  7  8  2  0  0  0  0
  7  9  1  0  0  0  0
  2  9  2  0  0  0  0
  1 10  1  0  0  0  0
  1 11  1  0  0  0  0
  3 12  1  0  0  0  0
  4 13  1  0  0  0  0
M  END
$$$$
