C6H7NO
NCtclcactv09232613133D 0   0.00000     0.00000
 
 15 15  0  0  0  0  0  0  0  0999 V2000
    1.7089    1.4127    0.0104 N   0  0  0  0  0  0  0  0  0  0  0  0
    0.5010    0.7056    0.0068 C   0  0  0  0  0  0  0  0  0  0  0  0
   -0.7055    1.3901   -0.0114 C   0  0  0  0  0  0  0  0  0  0  0  0
   -1.8971    0.6896   -0.0148 C   0  0  0  0  0  0  0  0  0  0  0  0
   -1.8901   -0.6929   -0.0002 C   0  0  0  0  0  0  0  0  0  0  0  0
   -0.6913   -1.3819    0.0179 C   0  0  0  0  0  0  0  0  0  0  0  0
    0.5071   -0.6875    0.0157 C   0  0  0  0  0  0  0  0  0  0  0  0
    1.6870   -1.3639    0.0334 O   0  0  0  0  0  0  0  0  0  0  0  0
    1.7032    2.3826    0.0002 H   0  0  0  0  0  0  0  0  0  0  0  0
    2.5517    0.9328    0.0271 H   0  0  0  0  0  0  0  0  0  0  0  0
   -0.7138    2.4700   -0.0224 H   0  0  0  0  0  0  0  0  0  0  0  0
   -2.8358    1.2235   -0.0286 H   0  0  0  0  0  0  0  0  0  0  0  0
   -2.8235   -1.2361   -0.0026 H   0  0  0  0  0  0  0  0  0  0  0  0
   -0.6895   -2.4618    0.0293 H   0  0  0  0  0  0  0  0  0  0  0  0
    2.0340   -1.5724   -0.8447 H   0  0  0  0  0  0  0  0  0  0  0  0
  1  2  1  0  0  0  0
  2  3  1  0  0  0  0
  3  4  2  0  0  0  0
  4  5  1  0  0  0  0
  5  6  2  0  0  0  0
  6  7  1  0  0  0  0
  2  7  2  0  0  0  0
  7  8  1  0  0  0  0
  1  9  1  0  0  0  0
  1 10  1  0  0  0  0
  3 11  1  0  0  0  0
  4 12  1  0  0  0  0
  5 13  1  0  0  0  0
  6 14  1  0  0  0  0
  8 15  1  0  0  0  0
M  END
$$$$
