C5H4N4
NCtclcactv09232613073D 0   0.00000     0.00000
 
 13 14  0  0  0  0  0  0  0  0999 V2000
   -2.0616    0.6476    0.0002 C   0  0  0  0  0  0  0  0  0  0  0  0
   -2.0760   -0.6732    0.0001 N   0  0  0  0  0  0  0  0  0  0  0  0
   -0.9515   -1.3724    0.0000 C   0  0  0  0  0  0  0  0  0  0  0  0
    0.2554   -0.6904   -0.0000 C   0  0  0  0  0  0  0  0  0  0  0  0
    1.5857   -1.0519   -0.0001 N   0  0  0  0  0  0  0  0  0  0  0  0
    1.9365   -1.9562   -0.0007 H   0  0  0  0  0  0  0  0  0  0  0  0
    2.3106    0.0903   -0.0001 C   0  0  0  0  0  0  0  0  0  0  0  0
    1.5188    1.1261    0.0000 N   0  0  0  0  0  0  0  0  0  0  0  0
    0.2355    0.7190    0.0001 C   0  0  0  0  0  0  0  0  0  0  0  0
   -0.9442    1.3409    0.0001 N   0  0  0  0  0  0  0  0  0  0  0  0
   -3.0024    1.1778   -0.0044 H   0  0  0  0  0  0  0  0  0  0  0  0
   -0.9741   -2.4521    0.0003 H   0  0  0  0  0  0  0  0  0  0  0  0
    3.3895    0.1374    0.0002 H   0  0  0  0  0  0  0  0  0  0  0  0
  1  2  1  0  0  0  0
  2  3  2  0  0  0  0
  3  4  1  0  0  0  0
  4  5  1  0  0  0  0
  5  6  1  0  0  0  0
  5  7  1  0  0  0  0
  7  8  2  0  0  0  0
  8  9  1  0  0  0  0
  4  9  2  0  0  0  0
  9 10  1  0  0  0  0
  1 10  2  0  0  0  0
  1 11  1  0  0  0  0
  3 12  1  0  0  0  0
  7 13  1  0  0  0  0
M  END
$$$$
