C5H5N5O
NCtclcactv09232613073D 0   0.00000     0.00000
 
 16 17  0  0  0  0  0  0  0  0999 V2000
    2.9960    1.0533    0.0010 N   0  0  0  0  0  0  0  0  0  0  0  0
    1.7233    0.5403    0.0008 C   0  0  0  0  0  0  0  0  0  0  0  0
    0.7018    1.3674    0.0003 N   0  0  0  0  0  0  0  0  0  0  0  0
   -0.5566    0.9124    0.0001 C   0  0  0  0  0  0  0  0  0  0  0  0
   -1.7875    1.5106   -0.0004 N   0  0  0  0  0  0  0  0  0  0  0  0
   -1.9615    2.4649   -0.0010 H   0  0  0  0  0  0  0  0  0  0  0  0
   -2.7253    0.5191   -0.0003 C   0  0  0  0  0  0  0  0  0  0  0  0
   -2.1391   -0.6423    0.0002 N   0  0  0  0  0  0  0  0  0  0  0  0
   -0.7952   -0.4666    0.0005 C   0  0  0  0  0  0  0  0  0  0  0  0
    0.3131   -1.3455    0.0010 C   0  0  0  0  0  0  0  0  0  0  0  0
    0.1522   -2.5540    0.0013 O   0  0  0  0  0  0  0  0  0  0  0  0
    1.5549   -0.8123   -0.0044 N   0  0  0  0  0  0  0  0  0  0  0  0
    2.3304   -1.3951   -0.0042 H   0  0  0  0  0  0  0  0  0  0  0  0
    3.1318    2.0138    0.0008 H   0  0  0  0  0  0  0  0  0  0  0  0
    3.7599    0.4555    0.0054 H   0  0  0  0  0  0  0  0  0  0  0  0
   -3.7940    0.6753   -0.0006 H   0  0  0  0  0  0  0  0  0  0  0  0
  1  2  1  0  0  0  0
  2  3  2  0  0  0  0
  3  4  1  0  0  0  0
  4  5  1  0  0  0  0
  5  6  1  0  0  0  0
  5  7  1  0  0  0  0
  7  8  2  0  0  0  0
  8  9  1  0  0  0  0
  4  9  2  0  0  0  0
  9 10  1  0  0  0  0
 10 11  2  0  0  0  0
 10 12  1  0  0  0  0
 12 13  1  0  0  0  0
  2 12  1  0  0  0  0
  1 14  1  0  0  0  0
  1 15  1  0  0  0  0
  7 16  1  0  0  0  0
M  END
$$$$
